Version 4
SHEET 1 1864 680
WIRE -64 -192 -192 -192
WIRE 672 -192 -64 -192
WIRE 1344 -192 672 -192
WIRE 416 -144 288 -144
WIRE 592 -144 496 -144
WIRE 1072 -128 1008 -128
WIRE 1248 -128 1152 -128
WIRE 1680 -128 1616 -128
WIRE 1856 -128 1760 -128
WIRE 1008 -96 1008 -128
WIRE 1616 -96 1616 -128
WIRE -192 -80 -192 -192
WIRE 1344 -80 1344 -192
WIRE 288 -32 288 -144
WIRE 1008 -16 1008 -32
WIRE 1616 -16 1616 -32
WIRE -64 16 -64 -192
WIRE 672 80 672 -192
WIRE 800 80 752 80
WIRE 816 80 800 80
WIRE 1008 80 1008 -16
WIRE 1008 80 992 80
WIRE 1120 80 1008 80
WIRE 1344 80 1344 0
WIRE 1408 80 1344 80
WIRE 1616 80 1616 -16
WIRE 1616 80 1600 80
WIRE 1680 80 1616 80
WIRE 32 96 -64 96
WIRE 288 96 288 48
WIRE 288 96 224 96
WIRE 368 96 288 96
WIRE 1248 144 1248 -128
WIRE 1248 144 992 144
WIRE 1856 144 1856 -128
WIRE 1856 144 1600 144
WIRE 768 176 688 176
WIRE 800 176 768 176
WIRE 1040 176 992 176
WIRE 1072 176 1040 176
WIRE 1392 176 1376 176
WIRE 1408 176 1392 176
WIRE 1648 176 1600 176
WIRE 1664 176 1648 176
WIRE 1856 176 1856 144
WIRE 1856 176 1744 176
WIRE -192 192 -192 0
WIRE -96 192 -192 192
WIRE -32 192 -96 192
WIRE 32 192 -32 192
WIRE 320 192 224 192
WIRE 592 192 592 -144
WIRE 592 192 320 192
WIRE 1072 192 1072 176
WIRE 1248 192 1248 144
WIRE 1248 192 1152 192
WIRE -96 224 -96 192
WIRE 688 224 688 176
WIRE 1376 224 1376 176
WIRE 768 256 768 176
WIRE 960 256 768 256
WIRE 1040 256 1040 176
WIRE 1392 256 1392 176
WIRE 1568 256 1392 256
WIRE 1648 256 1648 176
WIRE -32 272 -32 192
WIRE 240 272 -32 272
WIRE 320 272 320 192
FLAG 368 96 PC817
IOPIN 368 96 Out
FLAG -96 224 0
FLAG 688 224 0
FLAG 1120 80 CNY17
IOPIN 1120 80 Out
FLAG 1376 224 0
FLAG 1680 80 4N25
IOPIN 1680 80 Out
SYMBOL Optos\\PC817A 128 144 R0
SYMATTR InstName U1
SYMBOL res 272 -48 R0
SYMATTR InstName R1
SYMATTR Value 220K
SYMATTR SpiceLine tol=1 pwr=0.1
SYMBOL res -80 0 R0
SYMATTR InstName R2
SYMATTR Value 470
SYMATTR SpiceLine tol=1 pwr=0.1
SYMBOL voltage 400 -144 R270
WINDOW 123 0 0 Left 0
WINDOW 39 0 0 Left 0
SYMATTR InstName V1
SYMATTR Value 2.7
SYMBOL voltage -192 -96 R0
WINDOW 123 0 0 Left 0
WINDOW 39 0 0 Left 0
SYMATTR InstName V2
SYMATTR Value PULSE(0 5 1e-3 6e-9 6e-9 1e-3 0.1 1)
SYMBOL Optos\\CNY17-1 896 144 R0
SYMATTR InstName U2
SYMBOL res 656 64 M90
WINDOW 0 0 56 VBottom 2
WINDOW 3 32 56 VTop 2
SYMATTR InstName R3
SYMATTR Value 470
SYMBOL voltage 1056 -128 R270
WINDOW 123 0 0 Left 0
WINDOW 39 0 0 Left 0
SYMATTR InstName V3
SYMATTR Value 2.7
SYMBOL res 992 -112 R0
SYMATTR InstName R4
SYMATTR Value 220K
SYMATTR SpiceLine tol=1 pwr=0.1
SYMBOL res 1168 176 R90
WINDOW 0 0 56 VBottom 2
WINDOW 3 32 56 VTop 2
SYMATTR InstName R5
SYMATTR Value 100K
SYMBOL res 1360 -96 M0
SYMATTR InstName R6
SYMATTR Value 470
SYMBOL res 1760 160 R90
WINDOW 0 0 56 VBottom 2
WINDOW 3 32 56 VTop 2
SYMATTR InstName R7
SYMATTR Value 50k
SYMBOL voltage 1664 -128 R270
WINDOW 123 0 0 Left 0
WINDOW 39 0 0 Left 0
SYMATTR InstName V4
SYMATTR Value 2.7
SYMBOL res 1600 -112 R0
SYMATTR InstName R8
SYMATTR Value 220K
SYMATTR SpiceLine tol=1 pwr=0.1
SYMBOL Optos\\4N25 1504 144 R0
SYMATTR InstName U3
SYMBOL res 336 256 R90
WINDOW 0 0 56 VBottom 2
WINDOW 3 32 56 VTop 2
SYMATTR InstName R9
SYMATTR Value 1e9
SYMBOL res 1056 240 R90
WINDOW 0 0 56 VBottom 2
WINDOW 3 32 56 VTop 2
SYMATTR InstName R10
SYMATTR Value 1e9
SYMBOL res 1664 240 R90
WINDOW 0 0 56 VBottom 2
WINDOW 3 32 56 VTop 2
SYMATTR InstName R11
SYMATTR Value 1e9
TEXT -224 296 Left 2 !.tran 7e-3
